03_OpenDSS_Circuits/HollySprings_Circuit_Opendss/lf_rep.txt
inner load flow iterations
     4

 tap iterations 
     1

                             LOAD-FLOW STUDY
                    REPORT OF POWER FLOW CALCULATIONS 
 
31-Jan-2016
SWING BUS                  : BUS 1 
NUMBER OF ITERATIONS       : 4 
SOLUTION TIME              : 0.027 sec.
TOTAL TIME                 : 0.049 sec.
TOTAL REAL POWER LOSSES    : 0.822089.
TOTAL REACTIVE POWER LOSSES: 12.8219.

                                      GENERATION             LOAD
       BUS     VOLTS     ANGLE      REAL  REACTIVE      REAL  REACTIVE 
  Columns 1 through 5

    1.0000    1.0300   18.5000    7.0721    1.5166
    2.0000    1.0100    8.6533    7.0000    1.5001
    3.0000    0.9862   -6.2342         0         0
    4.0000    0.9799   -9.1288         0         0
   10.0000    1.0119   11.9937         0         0
   11.0000    1.0300   -6.6324    7.1600    1.5363
   12.0000    1.0100  -16.6903    7.0000    1.4978
   13.0000    0.9866  -31.6259         0         0
   14.0000    0.9774  -36.8767         0         0
   20.0000    0.9920    1.9528         0         0
  101.0000    1.0000  -19.1573   -0.0000    0.9859
  110.0000    1.0118  -13.2210         0         0
  120.0000    0.9920  -23.3906         0         0

  Columns 6 through 7

         0         0
         0         0
   -0.0000    0.0000
    9.7600    1.0000
    0.0000   -0.0000
         0         0
         0         0
    0.0000   -0.0000
   17.6500    1.0000
    0.0000   -0.0000
         0         0
   -0.0000    0.0000
    0.0000   -0.0000

                      LINE FLOWS                     
      LINE  FROM BUS    TO BUS      REAL  REACTIVE   
    1.0000    1.0000   10.0000    7.0721    1.5166
    2.0000    2.0000   20.0000    7.0000    1.5001
    3.0000    3.0000    4.0000    9.7600    1.5013
    4.0000    3.0000   20.0000  -13.7510    1.7959
    5.0000    3.0000  101.0000    1.9955   -0.1897
    6.0000    3.0000  101.0000    1.9955   -0.1897
    7.0000   10.0000   20.0000    7.0721    0.6931
    8.0000   11.0000  110.0000    7.1600    1.5363
    9.0000   12.0000  120.0000    7.0000    1.4978
   10.0000   13.0000  101.0000   -1.9083    0.1888
   11.0000   13.0000  101.0000   -1.9083    0.1888
   12.0000   13.0000   14.0000   17.6500    2.6358
   13.0000   13.0000  120.0000  -13.8334    1.8538
   14.0000  110.0000  120.0000    7.1600    0.6922

    1.0000   10.0000    1.0000   -7.0721   -0.6931
    2.0000   20.0000    2.0000   -7.0000   -0.6611
    3.0000    4.0000    3.0000   -9.7600   -1.0000
    4.0000   20.0000    3.0000   13.9487    0.1646
    5.0000  101.0000    3.0000   -1.9503    0.4512
    6.0000  101.0000    3.0000   -1.9503    0.4512
    7.0000   20.0000   10.0000   -6.9487    0.4965
    8.0000  110.0000   11.0000   -7.1600   -0.6922
    9.0000  120.0000   12.0000   -7.0000   -0.6589
   10.0000  101.0000   13.0000    1.9503    0.0418
   11.0000  101.0000   13.0000    1.9503    0.0418
   12.0000   14.0000   13.0000  -17.6500   -1.0000
   13.0000  120.0000   13.0000   14.0336    0.1305
   14.0000  120.0000  110.0000   -7.0336    0.5284

inner load flow iterations
     4

 tap iterations 
     1

                             LOAD-FLOW STUDY
                    REPORT OF POWER FLOW CALCULATIONS 
 
31-Jan-2016
SWING BUS                  : BUS 1 
NUMBER OF ITERATIONS       : 4 
SOLUTION TIME              : 0.002 sec.
TOTAL TIME                 : 0.01 sec.
TOTAL REAL POWER LOSSES    : 0.822089.
TOTAL REACTIVE POWER LOSSES: 12.8219.

                                      GENERATION             LOAD
       BUS     VOLTS     ANGLE      REAL  REACTIVE      REAL  REACTIVE 
    1.0000    1.0300   18.5000    7.0721    1.5166         0         0
    2.0000    1.0100    8.6533    7.0000    1.5001         0         0
    3.0000    0.9862   -6.2342         0         0   -0.0000    0.0000
    4.0000    0.9799   -9.1288         0         0    9.7600    1.0000
   10.0000    1.0119   11.9937         0         0    0.0000   -0.0000
   11.0000    1.0300   -6.6324    7.1600    1.5363         0         0
   12.0000    1.0100  -16.6903    7.0000    1.4978         0         0
   13.0000    0.9866  -31.6259         0         0    0.0000   -0.0000
   14.0000    0.9774  -36.8767         0         0   17.6500    1.0000
   20.0000    0.9920    1.9528         0         0    0.0000   -0.0000
  101.0000    1.0000  -19.1573   -0.0000    0.9859         0         0
  110.0000    1.0118  -13.2210         0         0   -0.0000    0.0000
  120.0000    0.9920  -23.3906         0         0    0.0000   -0.0000

                      LINE FLOWS                     
      LINE  FROM BUS    TO BUS      REAL  REACTIVE   
    1.0000    1.0000   10.0000    7.0721    1.5166
    2.0000    2.0000   20.0000    7.0000    1.5001
    3.0000    3.0000    4.0000    9.7600    1.5013
    4.0000    3.0000   20.0000  -13.7510    1.7959
    5.0000    3.0000  101.0000    1.9955   -0.1897
    6.0000    3.0000  101.0000    1.9955   -0.1897
    7.0000   10.0000   20.0000    7.0721    0.6931
    8.0000   11.0000  110.0000    7.1600    1.5363
    9.0000   12.0000  120.0000    7.0000    1.4978
   10.0000   13.0000  101.0000   -1.9083    0.1888
   11.0000   13.0000  101.0000   -1.9083    0.1888
   12.0000   13.0000   14.0000   17.6500    2.6358
   13.0000   13.0000  120.0000  -13.8334    1.8538
   14.0000  110.0000  120.0000    7.1600    0.6922

    1.0000   10.0000    1.0000   -7.0721   -0.6931
    2.0000   20.0000    2.0000   -7.0000   -0.6611
    3.0000    4.0000    3.0000   -9.7600   -1.0000
    4.0000   20.0000    3.0000   13.9487    0.1646
    5.0000  101.0000    3.0000   -1.9503    0.4512
    6.0000  101.0000    3.0000   -1.9503    0.4512
    7.0000   20.0000   10.0000   -6.9487    0.4965
    8.0000  110.0000   11.0000   -7.1600   -0.6922
    9.0000  120.0000   12.0000   -7.0000   -0.6589
   10.0000  101.0000   13.0000    1.9503    0.0418
   11.0000  101.0000   13.0000    1.9503    0.0418
   12.0000   14.0000   13.0000  -17.6500   -1.0000
   13.0000  120.0000   13.0000   14.0336    0.1305
   14.0000  120.0000  110.0000   -7.0336    0.5284

inner ac load flow failed to converge after 10 iterations
at tap iteration number 1
voltage low changing tap on line
    46

taps reset to

tap =

    0.9500

inner ac load flow failed to converge after 10 iterations
at tap iteration number 2
voltage low changing tap on line
    46

taps reset to

tap =

    0.9000

inner load flow iterations
     4

 tap iterations 
     3

                             LOAD-FLOW STUDY
                    REPORT OF POWER FLOW CALCULATIONS 
 
31-Jan-2016
SWING BUS                  : BUS 39 
NUMBER OF ITERATIONS       : 4 
SOLUTION TIME              : 0.003 sec.
TOTAL TIME                 : 0.043 sec.
TOTAL REAL POWER LOSSES    : 0.477212.
TOTAL REACTIVE POWER LOSSES: 0.285302.

                                      GENERATION             LOAD
       BUS     VOLTS     ANGLE      REAL  REACTIVE      REAL  REACTIVE 
  Columns 1 through 5

    1.0000    1.0461   -9.4302         0         0
    2.0000    1.0450   -6.8678         0         0
    3.0000    1.0221   -9.7396         0         0
    4.0000    0.9989  -10.5614         0         0
    5.0000    0.9943   -9.3376         0         0
    6.0000    0.9972   -8.6146         0         0
    7.0000    0.9415  -10.7562         0         0
    8.0000    0.9553  -11.3664         0         0
    9.0000    1.0114  -11.1760         0         0
   10.0000    1.0092   -6.2043         0         0
   11.0000    1.0039   -7.0250         0         0
   12.0000    0.9913   -7.0432         0         0
   13.0000    1.0058   -6.9289         0         0
   14.0000    1.0020   -8.6263         0         0
   15.0000    0.9953   -9.0135         0         0
   16.0000    1.0076   -7.5247         0         0
   17.0000    1.0160   -8.5928         0         0
   18.0000    1.0170   -9.4726         0         0
   19.0000    1.0409   -2.8203         0         0
   20.0000    0.9860   -4.2626         0         0
   21.0000    1.0147   -5.0446         0         0
   22.0000    1.0407   -0.5070         0         0
   23.0000    1.0353   -0.7082         0         0
   24.0000    1.0152   -7.4056         0         0
   25.0000    1.0540   -5.5071         0         0
   26.0000    1.0450   -6.7494         0         0
   27.0000    1.0257   -8.7687         0         0
   28.0000    1.0488   -3.2346         0         0
   29.0000    1.0505   -0.4817    0.0000    1.2902
   30.0000    1.0475   -4.4394    2.5000    1.6707
   31.0000    1.0400   -1.5893    5.7293    7.7131
   32.0000    0.9831    1.8549    6.5000    2.4184
   33.0000    0.9972    2.4177    6.3200    1.6851
   34.0000    1.0123    0.9393    5.0800    1.9459
   35.0000    1.0493    4.4984    6.5000    2.7801
   36.0000    1.0635    7.2070    5.6000    1.3838
   37.0000    1.0278    1.2956    5.4000    0.1613
   38.0000    1.0265    6.5795    8.3000    0.1926
   39.0000    1.0300  -10.9600   10.0529    1.6253

  Columns 6 through 7

   -0.0000    0.0000
    0.0000    0.0000
    3.2200    0.0240
    5.0000    1.8400
   -0.0000   -0.0000
    0.0000    0.0000
    2.3380    8.4000
    5.2200    1.7600
   -0.0000   -0.0000
   -0.0000   -0.0000
    0.0000    0.0000
    0.0850    0.8800
   -0.0000   -0.0000
    0.0000    0.0000
    3.2000    1.5300
    3.2940    3.2300
   -0.0000   -0.0000
    1.5800    0.3000
    0.0000   -0.0000
    6.8000    1.0300
    2.7400    1.1500
    0.0000    0.0000
    2.4750    0.8460
    3.0860   -0.9220
    2.2400    0.4720
    1.3900    0.1700
    2.8100    0.7550
    2.0600    0.2760
    2.8350    1.2690
         0         0
    0.0920    0.0460
         0         0
         0         0
         0         0
         0         0
         0         0
         0         0
         0         0
   11.0400    2.5000

                      LINE FLOWS                     
      LINE  FROM BUS    TO BUS      REAL  REACTIVE   
    1.0000    1.0000    2.0000   -1.1761   -0.2296
    2.0000    1.0000   39.0000    1.1761    0.2296
    3.0000    2.0000    3.0000    3.6614    1.2237
    4.0000    2.0000   25.0000   -2.3420    0.7791
    5.0000    2.0000   30.0000   -2.5000   -1.5216
    6.0000    3.0000    4.0000    0.7528    0.9562
    7.0000    3.0000   18.0000   -0.3296    0.3072
    8.0000    4.0000    5.0000   -1.6271    0.4111
    9.0000    4.0000   14.0000   -2.6222   -0.1060
   10.0000    5.0000    8.0000    3.2367    3.2110
   11.0000    6.0000    5.0000    4.8711    0.7470
   12.0000    6.0000    7.0000    4.1937    5.7738
   13.0000    6.0000   11.0000   -3.4275   -0.5492
   14.0000    7.0000    8.0000    1.8246   -2.9972
   15.0000    8.0000    9.0000   -0.1813   -1.6394
   16.0000    9.0000   39.0000   -0.1868   -1.3581
   17.0000   10.0000   11.0000    3.4639    0.9168
   18.0000   10.0000   13.0000    3.0361    0.5063
   19.0000   10.0000   32.0000   -6.5000   -1.4230
   20.0000   12.0000   11.0000   -0.0226   -0.4193
   21.0000   12.0000   13.0000   -0.0624   -0.4607
   22.0000   13.0000   14.0000    2.9696    0.0697
   23.0000   14.0000   15.0000    0.3340    0.0985
   24.0000   15.0000   16.0000   -2.8663   -1.0706
   25.0000   16.0000   17.0000    2.0576   -1.1684
   26.0000   16.0000   19.0000   -4.5074   -1.3271
   27.0000   16.0000   21.0000   -3.2930   -0.3968
   28.0000   16.0000   24.0000   -0.4258   -1.3240
   29.0000   17.0000   18.0000    1.9124   -0.3325
   30.0000   17.0000   27.0000    0.1414   -0.7462
   31.0000   19.0000   33.0000   -6.2899   -1.0742
   32.0000   19.0000   20.0000    1.7483   -0.3506
   33.0000   20.0000   34.0000   -5.0540   -1.4261
   34.0000   21.0000   22.0000   -6.0416   -1.4314
   35.0000   22.0000   23.0000    0.4288    0.4513
   36.0000   22.0000   35.0000   -6.5000   -2.1310
   37.0000   23.0000   24.0000    3.5388    0.3834
   38.0000   23.0000   36.0000   -5.5853   -0.5835
   39.0000   25.0000   26.0000    0.7615   -0.0608
   40.0000   25.0000   37.0000   -5.3834    0.4797
   41.0000   26.0000   27.0000    2.6800    1.0299
   42.0000   26.0000   28.0000   -1.4097   -0.3388
   43.0000   26.0000   29.0000   -1.9006   -0.3752
   44.0000   28.0000   29.0000   -3.4775    0.1538
   45.0000   29.0000   38.0000   -8.2477    0.8279
   46.0000   31.0000    6.0000    5.6373    7.6671

    1.0000    2.0000    1.0000    1.1806   -0.4813
    2.0000   39.0000    1.0000   -1.1745   -0.9968
    3.0000    3.0000    2.0000   -3.6432   -1.2874
    4.0000   25.0000    2.0000    2.3819   -0.8910
    5.0000   30.0000    2.0000    2.5000    1.6707
    6.0000    4.0000    3.0000   -0.7506   -1.1473
    7.0000   18.0000    3.0000    0.3299   -0.5258
    8.0000    5.0000    4.0000    1.6295   -0.5074
    9.0000   14.0000    4.0000    2.6277    0.0566
   10.0000    8.0000    5.0000   -3.2195   -3.1104
   11.0000    5.0000    6.0000   -4.8662   -0.7265
   12.0000    7.0000    6.0000   -4.1626   -5.4028
   13.0000   11.0000    6.0000    3.4359    0.5089
   14.0000    8.0000    7.0000   -1.8191    2.9898
   15.0000    9.0000    8.0000    0.1868    1.3581
   16.0000   39.0000    9.0000    0.1874    0.1221
   17.0000   11.0000   10.0000   -3.4588   -0.9361
   18.0000   13.0000   10.0000   -3.0324   -0.5401
   19.0000   32.0000   10.0000    6.5000    2.4184
   20.0000   11.0000   12.0000    0.0229    0.4272
   21.0000   13.0000   12.0000    0.0627    0.4704
   22.0000   14.0000   13.0000   -2.9618   -0.1551
   23.0000   15.0000   14.0000   -0.3337   -0.4594
   24.0000   16.0000   15.0000    2.8747    0.9863
   25.0000   17.0000   16.0000   -2.0538    1.0787
   26.0000   19.0000   16.0000    4.5416    1.4248
   27.0000   21.0000   16.0000    3.3016    0.2814
   28.0000   24.0000   16.0000    0.4264    1.2652
   29.0000   18.0000   17.0000   -1.9099    0.2258
   30.0000   27.0000   17.0000   -0.1410    0.4170
   31.0000   33.0000   19.0000    6.3200    1.6851
   32.0000   20.0000   19.0000   -1.7460    0.3961
   33.0000   34.0000   20.0000    5.0800    1.9459
   34.0000   22.0000   21.0000    6.0712    1.6797
   35.0000   23.0000   22.0000   -0.4285   -0.6459
   36.0000   35.0000   22.0000    6.5000    2.7801
   37.0000   24.0000   23.0000   -3.5124   -0.3432
   38.0000   36.0000   23.0000    5.6000    1.3838
   39.0000   26.0000   25.0000   -0.7597   -0.4860
   40.0000   37.0000   25.0000    5.4000    0.1613
   41.0000   27.0000   26.0000   -2.6690   -1.1720
   42.0000   28.0000   26.0000    1.4175   -0.4298
   43.0000   29.0000   26.0000    1.9196   -0.5457
   44.0000   29.0000   28.0000    3.4930   -0.2610
   45.0000   38.0000   29.0000    8.3000    0.1926
   46.0000    6.0000   31.0000   -5.6373   -5.9716

inner ac load flow failed to converge after 10 iterations
at tap iteration number 1
voltage low changing tap on line
    46

taps reset to

tap =

    0.9500

inner ac load flow failed to converge after 10 iterations
at tap iteration number 2
voltage low changing tap on line
    46

taps reset to

tap =

    0.9000

inner load flow iterations
     4

 tap iterations 
     3

                             LOAD-FLOW STUDY
                    REPORT OF POWER FLOW CALCULATIONS 
 
31-Jan-2016
SWING BUS                  : BUS 39 
NUMBER OF ITERATIONS       : 4 
SOLUTION TIME              : 0.003 sec.
TOTAL TIME                 : 0.02 sec.
TOTAL REAL POWER LOSSES    : 0.477212.
TOTAL REACTIVE POWER LOSSES: 0.285302.

                                      GENERATION             LOAD
       BUS     VOLTS     ANGLE      REAL  REACTIVE      REAL  REACTIVE 
    1.0000    1.0461   -9.4302         0         0   -0.0000    0.0000
    2.0000    1.0450   -6.8678         0         0    0.0000    0.0000
    3.0000    1.0221   -9.7396         0         0    3.2200    0.0240
    4.0000    0.9989  -10.5614         0         0    5.0000    1.8400
    5.0000    0.9943   -9.3376         0         0   -0.0000   -0.0000
    6.0000    0.9972   -8.6146         0         0    0.0000    0.0000
    7.0000    0.9415  -10.7562         0         0    2.3380    8.4000
    8.0000    0.9553  -11.3664         0         0    5.2200    1.7600
    9.0000    1.0114  -11.1760         0         0   -0.0000   -0.0000
   10.0000    1.0092   -6.2043         0         0   -0.0000   -0.0000
   11.0000    1.0039   -7.0250         0         0    0.0000    0.0000
   12.0000    0.9913   -7.0432         0         0    0.0850    0.8800
   13.0000    1.0058   -6.9289         0         0   -0.0000   -0.0000
   14.0000    1.0020   -8.6263         0         0    0.0000    0.0000
   15.0000    0.9953   -9.0135         0         0    3.2000    1.5300
   16.0000    1.0076   -7.5247         0         0    3.2940    3.2300
   17.0000    1.0160   -8.5928         0         0   -0.0000   -0.0000
   18.0000    1.0170   -9.4726         0         0    1.5800    0.3000
   19.0000    1.0409   -2.8203         0         0    0.0000   -0.0000
   20.0000    0.9860   -4.2626         0         0    6.8000    1.0300
   21.0000    1.0147   -5.0446         0         0    2.7400    1.1500
   22.0000    1.0407   -0.5070         0         0    0.0000    0.0000
   23.0000    1.0353   -0.7082         0         0    2.4750    0.8460
   24.0000    1.0152   -7.4056         0         0    3.0860   -0.9220
   25.0000    1.0540   -5.5071         0         0    2.2400    0.4720
   26.0000    1.0450   -6.7494         0         0    1.3900    0.1700
   27.0000    1.0257   -8.7687         0         0    2.8100    0.7550
   28.0000    1.0488   -3.2346         0         0    2.0600    0.2760
   29.0000    1.0505   -0.4817    0.0000    1.2902    2.8350    1.2690
   30.0000    1.0475   -4.4394    2.5000    1.6707         0         0
   31.0000    1.0400   -1.5893    5.7293    7.7131    0.0920    0.0460
   32.0000    0.9831    1.8549    6.5000    2.4184         0         0
   33.0000    0.9972    2.4177    6.3200    1.6851         0         0
   34.0000    1.0123    0.9393    5.0800    1.9459         0         0
   35.0000    1.0493    4.4984    6.5000    2.7801         0         0
   36.0000    1.0635    7.2070    5.6000    1.3838         0         0
   37.0000    1.0278    1.2956    5.4000    0.1613         0         0
   38.0000    1.0265    6.5795    8.3000    0.1926         0         0
   39.0000    1.0300  -10.9600   10.0529    1.6253   11.0400    2.5000

                      LINE FLOWS                     
      LINE  FROM BUS    TO BUS      REAL  REACTIVE   
    1.0000    1.0000    2.0000   -1.1761   -0.2296
    2.0000    1.0000   39.0000    1.1761    0.2296
    3.0000    2.0000    3.0000    3.6614    1.2237
    4.0000    2.0000   25.0000   -2.3420    0.7791
    5.0000    2.0000   30.0000   -2.5000   -1.5216
    6.0000    3.0000    4.0000    0.7528    0.9562
    7.0000    3.0000   18.0000   -0.3296    0.3072
    8.0000    4.0000    5.0000   -1.6271    0.4111
    9.0000    4.0000   14.0000   -2.6222   -0.1060
   10.0000    5.0000    8.0000    3.2367    3.2110
   11.0000    6.0000    5.0000    4.8711    0.7470
   12.0000    6.0000    7.0000    4.1937    5.7738
   13.0000    6.0000   11.0000   -3.4275   -0.5492
   14.0000    7.0000    8.0000    1.8246   -2.9972
   15.0000    8.0000    9.0000   -0.1813   -1.6394
   16.0000    9.0000   39.0000   -0.1868   -1.3581
   17.0000   10.0000   11.0000    3.4639    0.9168
   18.0000   10.0000   13.0000    3.0361    0.5063
   19.0000   10.0000   32.0000   -6.5000   -1.4230
   20.0000   12.0000   11.0000   -0.0226   -0.4193
   21.0000   12.0000   13.0000   -0.0624   -0.4607
   22.0000   13.0000   14.0000    2.9696    0.0697
   23.0000   14.0000   15.0000    0.3340    0.0985
   24.0000   15.0000   16.0000   -2.8663   -1.0706
   25.0000   16.0000   17.0000    2.0576   -1.1684
   26.0000   16.0000   19.0000   -4.5074   -1.3271
   27.0000   16.0000   21.0000   -3.2930   -0.3968
   28.0000   16.0000   24.0000   -0.4258   -1.3240
   29.0000   17.0000   18.0000    1.9124   -0.3325
   30.0000   17.0000   27.0000    0.1414   -0.7462
   31.0000   19.0000   33.0000   -6.2899   -1.0742
   32.0000   19.0000   20.0000    1.7483   -0.3506
   33.0000   20.0000   34.0000   -5.0540   -1.4261
   34.0000   21.0000   22.0000   -6.0416   -1.4314
   35.0000   22.0000   23.0000    0.4288    0.4513
   36.0000   22.0000   35.0000   -6.5000   -2.1310
   37.0000   23.0000   24.0000    3.5388    0.3834
   38.0000   23.0000   36.0000   -5.5853   -0.5835
   39.0000   25.0000   26.0000    0.7615   -0.0608
   40.0000   25.0000   37.0000   -5.3834    0.4797
   41.0000   26.0000   27.0000    2.6800    1.0299
   42.0000   26.0000   28.0000   -1.4097   -0.3388
   43.0000   26.0000   29.0000   -1.9006   -0.3752
   44.0000   28.0000   29.0000   -3.4775    0.1538
   45.0000   29.0000   38.0000   -8.2477    0.8279
   46.0000   31.0000    6.0000    5.6373    7.6671

    1.0000    2.0000    1.0000    1.1806   -0.4813
    2.0000   39.0000    1.0000   -1.1745   -0.9968
    3.0000    3.0000    2.0000   -3.6432   -1.2874
    4.0000   25.0000    2.0000    2.3819   -0.8910
    5.0000   30.0000    2.0000    2.5000    1.6707
    6.0000    4.0000    3.0000   -0.7506   -1.1473
    7.0000   18.0000    3.0000    0.3299   -0.5258
    8.0000    5.0000    4.0000    1.6295   -0.5074
    9.0000   14.0000    4.0000    2.6277    0.0566
   10.0000    8.0000    5.0000   -3.2195   -3.1104
   11.0000    5.0000    6.0000   -4.8662   -0.7265
   12.0000    7.0000    6.0000   -4.1626   -5.4028
   13.0000   11.0000    6.0000    3.4359    0.5089
   14.0000    8.0000    7.0000   -1.8191    2.9898
   15.0000    9.0000    8.0000    0.1868    1.3581
   16.0000   39.0000    9.0000    0.1874    0.1221
   17.0000   11.0000   10.0000   -3.4588   -0.9361
   18.0000   13.0000   10.0000   -3.0324   -0.5401
   19.0000   32.0000   10.0000    6.5000    2.4184
   20.0000   11.0000   12.0000    0.0229    0.4272
   21.0000   13.0000   12.0000    0.0627    0.4704
   22.0000   14.0000   13.0000   -2.9618   -0.1551
   23.0000   15.0000   14.0000   -0.3337   -0.4594
   24.0000   16.0000   15.0000    2.8747    0.9863
   25.0000   17.0000   16.0000   -2.0538    1.0787
   26.0000   19.0000   16.0000    4.5416    1.4248
   27.0000   21.0000   16.0000    3.3016    0.2814
   28.0000   24.0000   16.0000    0.4264    1.2652
   29.0000   18.0000   17.0000   -1.9099    0.2258
   30.0000   27.0000   17.0000   -0.1410    0.4170
   31.0000   33.0000   19.0000    6.3200    1.6851
   32.0000   20.0000   19.0000   -1.7460    0.3961
   33.0000   34.0000   20.0000    5.0800    1.9459
   34.0000   22.0000   21.0000    6.0712    1.6797
   35.0000   23.0000   22.0000   -0.4285   -0.6459
   36.0000   35.0000   22.0000    6.5000    2.7801
   37.0000   24.0000   23.0000   -3.5124   -0.3432
   38.0000   36.0000   23.0000    5.6000    1.3838
   39.0000   26.0000   25.0000   -0.7597   -0.4860
   40.0000   37.0000   25.0000    5.4000    0.1613
   41.0000   27.0000   26.0000   -2.6690   -1.1720
   42.0000   28.0000   26.0000    1.4175   -0.4298
   43.0000   29.0000   26.0000    1.9196   -0.5457
   44.0000   29.0000   28.0000    3.4930   -0.2610
   45.0000   38.0000   29.0000    8.3000    0.1926
   46.0000    6.0000   31.0000   -5.6373   -5.9716

inner load flow iterations
     4

 tap iterations 
     1

                             LOAD-FLOW STUDY
                    REPORT OF POWER FLOW CALCULATIONS 
 
01-Feb-2016
SWING BUS                  : BUS 1 
NUMBER OF ITERATIONS       : 4 
SOLUTION TIME              : 0.003 sec.
TOTAL TIME                 : 0.004 sec.
TOTAL REAL POWER LOSSES    : 0.822089.
TOTAL REACTIVE POWER LOSSES: 12.8219.

                                      GENERATION             LOAD
       BUS     VOLTS     ANGLE      REAL  REACTIVE      REAL  REACTIVE 
  Columns 1 through 6

    1.0000    1.0300   18.5000    7.0721    1.5166         0
    2.0000    1.0100    8.6533    7.0000    1.5001         0
    3.0000    0.9862   -6.2342         0         0   -0.0000
    4.0000    0.9799   -9.1288         0         0    9.7600
   10.0000    1.0119   11.9937         0         0    0.0000
   11.0000    1.0300   -6.6324    7.1600    1.5363         0
   12.0000    1.0100  -16.6903    7.0000    1.4978         0
   13.0000    0.9866  -31.6259         0         0    0.0000
   14.0000    0.9774  -36.8767         0         0   17.6500
   20.0000    0.9920    1.9528         0         0    0.0000
  101.0000    1.0000  -19.1573   -0.0000    0.9859         0
  110.0000    1.0118  -13.2210         0         0   -0.0000
  120.0000    0.9920  -23.3906         0         0    0.0000

  Column 7

         0
         0
    0.0000
    1.0000
   -0.0000
         0
         0
   -0.0000
    1.0000
   -0.0000
         0
    0.0000
   -0.0000

                      LINE FLOWS                     
      LINE  FROM BUS    TO BUS      REAL  REACTIVE   
    1.0000    1.0000   10.0000    7.0721    1.5166
    2.0000    2.0000   20.0000    7.0000    1.5001
    3.0000    3.0000    4.0000    9.7600    1.5013
    4.0000    3.0000   20.0000  -13.7510    1.7959
    5.0000    3.0000  101.0000    1.9955   -0.1897
    6.0000    3.0000  101.0000    1.9955   -0.1897
    7.0000   10.0000   20.0000    7.0721    0.6931
    8.0000   11.0000  110.0000    7.1600    1.5363
    9.0000   12.0000  120.0000    7.0000    1.4978
   10.0000   13.0000  101.0000   -1.9083    0.1888
   11.0000   13.0000  101.0000   -1.9083    0.1888
   12.0000   13.0000   14.0000   17.6500    2.6358
   13.0000   13.0000  120.0000  -13.8334    1.8538
   14.0000  110.0000  120.0000    7.1600    0.6922

    1.0000   10.0000    1.0000   -7.0721   -0.6931
    2.0000   20.0000    2.0000   -7.0000   -0.6611
    3.0000    4.0000    3.0000   -9.7600   -1.0000
    4.0000   20.0000    3.0000   13.9487    0.1646
    5.0000  101.0000    3.0000   -1.9503    0.4512
    6.0000  101.0000    3.0000   -1.9503    0.4512
    7.0000   20.0000   10.0000   -6.9487    0.4965
    8.0000  110.0000   11.0000   -7.1600   -0.6922
    9.0000  120.0000   12.0000   -7.0000   -0.6589
   10.0000  101.0000   13.0000    1.9503    0.0418
   11.0000  101.0000   13.0000    1.9503    0.0418
   12.0000   14.0000   13.0000  -17.6500   -1.0000
   13.0000  120.0000   13.0000   14.0336    0.1305
   14.0000  120.0000  110.0000   -7.0336    0.5284

inner ac load flow failed to converge after 10 iterations
at tap iteration number 1
voltage low changing tap on line
    46

taps reset to

tap =

    0.9500

inner ac load flow failed to converge after 10 iterations
at tap iteration number 2
voltage low changing tap on line
    46

taps reset to

tap =

    0.9000

inner load flow iterations
     4

 tap iterations 
     3

                             LOAD-FLOW STUDY
                    REPORT OF POWER FLOW CALCULATIONS 
 
01-Feb-2016
SWING BUS                  : BUS 39 
NUMBER OF ITERATIONS       : 4 
SOLUTION TIME              : 0.003 sec.
TOTAL TIME                 : 0.021 sec.
TOTAL REAL POWER LOSSES    : 0.477212.
TOTAL REACTIVE POWER LOSSES: 0.285302.

                                      GENERATION             LOAD
       BUS     VOLTS     ANGLE      REAL  REACTIVE      REAL  REACTIVE 
    1.0000    1.0461   -9.4302         0         0   -0.0000    0.0000
    2.0000    1.0450   -6.8678         0         0    0.0000    0.0000
    3.0000    1.0221   -9.7396         0         0    3.2200    0.0240
    4.0000    0.9989  -10.5614         0         0    5.0000    1.8400
    5.0000    0.9943   -9.3376         0         0   -0.0000   -0.0000
    6.0000    0.9972   -8.6146         0         0    0.0000    0.0000
    7.0000    0.9415  -10.7562         0         0    2.3380    8.4000
    8.0000    0.9553  -11.3664         0         0    5.2200    1.7600
    9.0000    1.0114  -11.1760         0         0   -0.0000   -0.0000
   10.0000    1.0092   -6.2043         0         0   -0.0000   -0.0000
   11.0000    1.0039   -7.0250         0         0    0.0000    0.0000
   12.0000    0.9913   -7.0432         0         0    0.0850    0.8800
   13.0000    1.0058   -6.9289         0         0   -0.0000   -0.0000
   14.0000    1.0020   -8.6263         0         0    0.0000    0.0000
   15.0000    0.9953   -9.0135         0         0    3.2000    1.5300
   16.0000    1.0076   -7.5247         0         0    3.2940    3.2300
   17.0000    1.0160   -8.5928         0         0   -0.0000   -0.0000
   18.0000    1.0170   -9.4726         0         0    1.5800    0.3000
   19.0000    1.0409   -2.8203         0         0    0.0000   -0.0000
   20.0000    0.9860   -4.2626         0         0    6.8000    1.0300
   21.0000    1.0147   -5.0446         0         0    2.7400    1.1500
   22.0000    1.0407   -0.5070         0         0    0.0000    0.0000
   23.0000    1.0353   -0.7082         0         0    2.4750    0.8460
   24.0000    1.0152   -7.4056         0         0    3.0860   -0.9220
   25.0000    1.0540   -5.5071         0         0    2.2400    0.4720
   26.0000    1.0450   -6.7494         0         0    1.3900    0.1700
   27.0000    1.0257   -8.7687         0         0    2.8100    0.7550
   28.0000    1.0488   -3.2346         0         0    2.0600    0.2760
   29.0000    1.0505   -0.4817    0.0000    1.2902    2.8350    1.2690
   30.0000    1.0475   -4.4394    2.5000    1.6707         0         0
   31.0000    1.0400   -1.5893    5.7293    7.7131    0.0920    0.0460
   32.0000    0.9831    1.8549    6.5000    2.4184         0         0
   33.0000    0.9972    2.4177    6.3200    1.6851         0         0
   34.0000    1.0123    0.9393    5.0800    1.9459         0         0
   35.0000    1.0493    4.4984    6.5000    2.7801         0         0
   36.0000    1.0635    7.2070    5.6000    1.3838         0         0
   37.0000    1.0278    1.2956    5.4000    0.1613         0         0
   38.0000    1.0265    6.5795    8.3000    0.1926         0         0
   39.0000    1.0300  -10.9600   10.0529    1.6253   11.0400    2.5000

                      LINE FLOWS                     
      LINE  FROM BUS    TO BUS      REAL  REACTIVE   
    1.0000    1.0000    2.0000   -1.1761   -0.2296
    2.0000    1.0000   39.0000    1.1761    0.2296
    3.0000    2.0000    3.0000    3.6614    1.2237
    4.0000    2.0000   25.0000   -2.3420    0.7791
    5.0000    2.0000   30.0000   -2.5000   -1.5216
    6.0000    3.0000    4.0000    0.7528    0.9562
    7.0000    3.0000   18.0000   -0.3296    0.3072
    8.0000    4.0000    5.0000   -1.6271    0.4111
    9.0000    4.0000   14.0000   -2.6222   -0.1060
   10.0000    5.0000    8.0000    3.2367    3.2110
   11.0000    6.0000    5.0000    4.8711    0.7470
   12.0000    6.0000    7.0000    4.1937    5.7738
   13.0000    6.0000   11.0000   -3.4275   -0.5492
   14.0000    7.0000    8.0000    1.8246   -2.9972
   15.0000    8.0000    9.0000   -0.1813   -1.6394
   16.0000    9.0000   39.0000   -0.1868   -1.3581
   17.0000   10.0000   11.0000    3.4639    0.9168
   18.0000   10.0000   13.0000    3.0361    0.5063
   19.0000   10.0000   32.0000   -6.5000   -1.4230
   20.0000   12.0000   11.0000   -0.0226   -0.4193
   21.0000   12.0000   13.0000   -0.0624   -0.4607
   22.0000   13.0000   14.0000    2.9696    0.0697
   23.0000   14.0000   15.0000    0.3340    0.0985
   24.0000   15.0000   16.0000   -2.8663   -1.0706
   25.0000   16.0000   17.0000    2.0576   -1.1684
   26.0000   16.0000   19.0000   -4.5074   -1.3271
   27.0000   16.0000   21.0000   -3.2930   -0.3968
   28.0000   16.0000   24.0000   -0.4258   -1.3240
   29.0000   17.0000   18.0000    1.9124   -0.3325
   30.0000   17.0000   27.0000    0.1414   -0.7462
   31.0000   19.0000   33.0000   -6.2899   -1.0742
   32.0000   19.0000   20.0000    1.7483   -0.3506
   33.0000   20.0000   34.0000   -5.0540   -1.4261
   34.0000   21.0000   22.0000   -6.0416   -1.4314
   35.0000   22.0000   23.0000    0.4288    0.4513
   36.0000   22.0000   35.0000   -6.5000   -2.1310
   37.0000   23.0000   24.0000    3.5388    0.3834
   38.0000   23.0000   36.0000   -5.5853   -0.5835
   39.0000   25.0000   26.0000    0.7615   -0.0608
   40.0000   25.0000   37.0000   -5.3834    0.4797
   41.0000   26.0000   27.0000    2.6800    1.0299
   42.0000   26.0000   28.0000   -1.4097   -0.3388
   43.0000   26.0000   29.0000   -1.9006   -0.3752
   44.0000   28.0000   29.0000   -3.4775    0.1538
   45.0000   29.0000   38.0000   -8.2477    0.8279
   46.0000   31.0000    6.0000    5.6373    7.6671

    1.0000    2.0000    1.0000    1.1806   -0.4813
    2.0000   39.0000    1.0000   -1.1745   -0.9968
    3.0000    3.0000    2.0000   -3.6432   -1.2874
    4.0000   25.0000    2.0000    2.3819   -0.8910
    5.0000   30.0000    2.0000    2.5000    1.6707
    6.0000    4.0000    3.0000   -0.7506   -1.1473
    7.0000   18.0000    3.0000    0.3299   -0.5258
    8.0000    5.0000    4.0000    1.6295   -0.5074
    9.0000   14.0000    4.0000    2.6277    0.0566
   10.0000    8.0000    5.0000   -3.2195   -3.1104
   11.0000    5.0000    6.0000   -4.8662   -0.7265
   12.0000    7.0000    6.0000   -4.1626   -5.4028
   13.0000   11.0000    6.0000    3.4359    0.5089
   14.0000    8.0000    7.0000   -1.8191    2.9898
   15.0000    9.0000    8.0000    0.1868    1.3581
   16.0000   39.0000    9.0000    0.1874    0.1221
   17.0000   11.0000   10.0000   -3.4588   -0.9361
   18.0000   13.0000   10.0000   -3.0324   -0.5401
   19.0000   32.0000   10.0000    6.5000    2.4184
   20.0000   11.0000   12.0000    0.0229    0.4272
   21.0000   13.0000   12.0000    0.0627    0.4704
   22.0000   14.0000   13.0000   -2.9618   -0.1551
   23.0000   15.0000   14.0000   -0.3337   -0.4594
   24.0000   16.0000   15.0000    2.8747    0.9863
   25.0000   17.0000   16.0000   -2.0538    1.0787
   26.0000   19.0000   16.0000    4.5416    1.4248
   27.0000   21.0000   16.0000    3.3016    0.2814
   28.0000   24.0000   16.0000    0.4264    1.2652
   29.0000   18.0000   17.0000   -1.9099    0.2258
   30.0000   27.0000   17.0000   -0.1410    0.4170
   31.0000   33.0000   19.0000    6.3200    1.6851
   32.0000   20.0000   19.0000   -1.7460    0.3961
   33.0000   34.0000   20.0000    5.0800    1.9459
   34.0000   22.0000   21.0000    6.0712    1.6797
   35.0000   23.0000   22.0000   -0.4285   -0.6459
   36.0000   35.0000   22.0000    6.5000    2.7801
   37.0000   24.0000   23.0000   -3.5124   -0.3432
   38.0000   36.0000   23.0000    5.6000    1.3838
   39.0000   26.0000   25.0000   -0.7597   -0.4860
   40.0000   37.0000   25.0000    5.4000    0.1613
   41.0000   27.0000   26.0000   -2.6690   -1.1720
   42.0000   28.0000   26.0000    1.4175   -0.4298
   43.0000   29.0000   26.0000    1.9196   -0.5457
   44.0000   29.0000   28.0000    3.4930   -0.2610
   45.0000   38.0000   29.0000    8.3000    0.1926
   46.0000    6.0000   31.0000   -5.6373   -5.9716

